!-   ===========  ALL OBJECTS IN CLASS: VERSION ===========
 
  Version,5.0;
 
!-   ===========  ALL OBJECTS IN CLASS: BUILDING ===========
 
  Building,
    TRNSYS17,                !- Name
    0.0,                     !- North Axis {deg}
    City,                    !- Terrain
    0,                    !- Loads Convergence Tolerance Value
    0,                     !- Temperature Convergence Tolerance Value {deltaC}
    FullInteriorAndExterior, !- Solar Distribution
    0;                      !- Maximum Number of Warmup Days
 
!-   ===========  ALL OBJECTS IN CLASS: LOCATION ===========
 
  Site:Location,
    not used,  !- Name
    0.0,                   !- Latitude {deg}
    0.0,                  !- Longitude {deg}
    0.0,                    !- Time Zone {hr}
    0;                  !- Elevation {m}
 
  GlobalGeometryRules,
    UpperLeftCorner,         !- Starting Vertex Position
    Counterclockwise,        !- Vertex Entry Direction
    Absolute;                !- Coordinate System
 
 
!-   ===========  ALL OBJECTS IN CLASS: CONSTRUCTION ===========
   Construction,
      BND_WALL;         !- Name
   Construction,
      EXT_WALL;         !- Name
   Construction,
      EXT_ROOF;         !- Name
   Construction,
      EXT_FLOOR;         !- Name
   Construction,
      BND_CEILING;         !- Name
   Construction,
      BND_FLOOR;         !- Name
   Construction,
      GROUND_FLOOR;         !- Name
   Construction,
      ADJ_WALL;         !- Name
   Construction,
      ADJ_CEILING;         !- Name
   Construction,
      EXT_WINDOW1;         !- Name
   Construction,
      EXT_WINDOW2;         !- Name
   Construction,
      ADJ_WINDOW;         !- Name
   Construction,
      ADJ_WINDOW2;         !- Name
   Construction,
     VirtualSurface;         !- Name

!-   ===========  ALL OBJECTS IN CLASS: SurfaceProperty:OtherSideCoefficients ===========
SurfaceProperty:OtherSideCoefficients,
    BOUNDARY=15;
SurfaceProperty:OtherSideCoefficients,
    BOUNDARY=20;
SurfaceProperty:OtherSideCoefficients,
    BOUNDARY=IDENTICAL;
SurfaceProperty:OtherSideCoefficients,
    BOUNDARY=INPUT 1*TBOUNDARY;
SurfaceProperty:OtherSideCoefficients,
    BOUNDARY=INPUT 1*TGROUND;
!-   ===========  ALL OBJECTS IN CLASS: WindowProperty:ShadingControl ===========
WindowProperty:ShadingControl,
    ESHADE=0; ISHADE=0;
WindowProperty:ShadingControl,
    ESHADE=INPUT 1*MAX_ESHADE : SHADECNTRL=ESHADE_INTERNAL;
WindowProperty:ShadingControl,
    ISHADE=INPUT 1*MAX_ISHADE : SHADECNTRL=ISHADE_INTERNAL;

 !-   ===========  ALL OBJECTS IN CLASS: OUTPUT:VARIABLEDICTIONARY ===========
 
  Output:VariableDictionary,IDF;

  Zone,
    TECHNIK_U2,  !- Name
    0.0,  !- Direction of Relative North {deg}
    0.0,  !- X Origin {m}
    0.0,  !- Y Origin {m}
    0.0,  !- Z Origin {m}
    ,  !- Type
    1;  !- Multiplier

  BuildingSurface:Detailed,
    16,                  !- Name
    Wall,  !- Surface Type
    EXT_WALL,  !- Construction Name
    TECHNIK_U2,  !- Zone Name
    Outdoors,  !- Outside Boundary Condition
    ,  !- Outside Boundary Condition Object
    SunExposed,  !- Sun Exposure
    WindExposed,  !- Wind Exposure
    0.0,  !- TRNSYS 17 - additional surface data
    4,  !- Number of Vertices
    45.820000000000,  !- Vertex 1 X-coordinate {m}                   
    0.000000000000,  !- Vertex 1 Y-coordinate {m}                   
    3.600000000000,  !- Vertex 1 Z-coordinate {m}                     
    45.820000000000,  !- Vertex 2 X-coordinate {m}                   
    0.000000000000,  !- Vertex 2 Y-coordinate {m}                   
    0.000000000000,  !- Vertex 2 Z-coordinate {m}                     
    45.820000000000,  !- Vertex 3 X-coordinate {m}                   
    19.710000000000,  !- Vertex 3 Y-coordinate {m}                   
    0.000000000000,  !- Vertex 3 Z-coordinate {m}                     
    45.820000000000,  !- Vertex 4 X-coordinate {m}                   
    19.710000000000,  !- Vertex 4 Y-coordinate {m}                   
    3.600000000000;  !- Vertex 4 Z-coordinate {m}                     

  BuildingSurface:Detailed,
    11,                  !- Name
    Wall,  !- Surface Type
    ADJ_WALL,  !- Construction Name
    TECHNIK_U2,  !- Zone Name
    Zone,  !- Outside Boundary Condition
    KONZERTSAAL,  !- Outside Boundary Condition Object
    NoSun,  !- Sun Exposure
    NoWind,  !- Wind Exposure
    BACK,  !- TRNSYS 17 - additional surface data
    4,  !- Number of Vertices
    34.170000000000,  !- Vertex 1 X-coordinate {m}                   
    19.710000000000,  !- Vertex 1 Y-coordinate {m}                   
    3.600000000000,  !- Vertex 1 Z-coordinate {m}                     
    34.170000000000,  !- Vertex 2 X-coordinate {m}                   
    19.710000000000,  !- Vertex 2 Y-coordinate {m}                   
    0.000000000000,  !- Vertex 2 Z-coordinate {m}                     
    29.510000000000,  !- Vertex 3 X-coordinate {m}                   
    19.710000000000,  !- Vertex 3 Y-coordinate {m}                   
    0.000000000000,  !- Vertex 3 Z-coordinate {m}                     
    29.510000000000,  !- Vertex 4 X-coordinate {m}                   
    19.710000000000,  !- Vertex 4 Y-coordinate {m}                   
    3.600000000000;  !- Vertex 4 Z-coordinate {m}                     

  BuildingSurface:Detailed,
    14,                  !- Name
    Wall,  !- Surface Type
    EXT_WALL,  !- Construction Name
    TECHNIK_U2,  !- Zone Name
    Outdoors,  !- Outside Boundary Condition
    ,  !- Outside Boundary Condition Object
    SunExposed,  !- Sun Exposure
    WindExposed,  !- Wind Exposure
    0.0,  !- TRNSYS 17 - additional surface data
    4,  !- Number of Vertices
    34.170000000000,  !- Vertex 1 X-coordinate {m}                   
    40.570000000000,  !- Vertex 1 Y-coordinate {m}                   
    3.600000000000,  !- Vertex 1 Z-coordinate {m}                     
    34.170000000000,  !- Vertex 2 X-coordinate {m}                   
    40.570000000000,  !- Vertex 2 Y-coordinate {m}                   
    0.000000000000,  !- Vertex 2 Z-coordinate {m}                     
    34.170000000000,  !- Vertex 3 X-coordinate {m}                   
    46.770000000000,  !- Vertex 3 Y-coordinate {m}                   
    0.000000000000,  !- Vertex 3 Z-coordinate {m}                     
    34.170000000000,  !- Vertex 4 X-coordinate {m}                   
    46.770000000000,  !- Vertex 4 Y-coordinate {m}                   
    3.600000000000;  !- Vertex 4 Z-coordinate {m}                     

  BuildingSurface:Detailed,
    8,                  !- Name
    Wall,  !- Surface Type
    EXT_WALL,  !- Construction Name
    TECHNIK_U2,  !- Zone Name
    Outdoors,  !- Outside Boundary Condition
    ,  !- Outside Boundary Condition Object
    SunExposed,  !- Sun Exposure
    WindExposed,  !- Wind Exposure
    0.0,  !- TRNSYS 17 - additional surface data
    4,  !- Number of Vertices
    0.000000000000,  !- Vertex 1 X-coordinate {m}                   
    46.770000000000,  !- Vertex 1 Y-coordinate {m}                   
    3.600000000000,  !- Vertex 1 Z-coordinate {m}                     
    0.000000000000,  !- Vertex 2 X-coordinate {m}                   
    46.770000000000,  !- Vertex 2 Y-coordinate {m}                   
    0.000000000000,  !- Vertex 2 Z-coordinate {m}                     
    0.000000000000,  !- Vertex 3 X-coordinate {m}                   
    37.370000000000,  !- Vertex 3 Y-coordinate {m}                   
    0.000000000000,  !- Vertex 3 Z-coordinate {m}                     
    0.000000000000,  !- Vertex 4 X-coordinate {m}                   
    37.370000000000,  !- Vertex 4 Y-coordinate {m}                   
    3.600000000000;  !- Vertex 4 Z-coordinate {m}                     

  BuildingSurface:Detailed,
    5,                  !- Name
    Wall,  !- Surface Type
    ADJ_WALL,  !- Construction Name
    TECHNIK_U2,  !- Zone Name
    Zone,  !- Outside Boundary Condition
    KONZERTSAAL,  !- Outside Boundary Condition Object
    NoSun,  !- Sun Exposure
    NoWind,  !- Wind Exposure
    0.0,  !- TRNSYS 17 - additional surface data
    4,  !- Number of Vertices
    29.510000000000,  !- Vertex 1 X-coordinate {m}                   
    19.710000000000,  !- Vertex 1 Y-coordinate {m}                   
    3.600000000000,  !- Vertex 1 Z-coordinate {m}                     
    29.510000000000,  !- Vertex 2 X-coordinate {m}                   
    19.710000000000,  !- Vertex 2 Y-coordinate {m}                   
    0.000000000000,  !- Vertex 2 Z-coordinate {m}                     
    29.510000000000,  !- Vertex 3 X-coordinate {m}                   
    40.570000000000,  !- Vertex 3 Y-coordinate {m}                   
    0.000000000000,  !- Vertex 3 Z-coordinate {m}                     
    29.510000000000,  !- Vertex 4 X-coordinate {m}                   
    40.570000000000,  !- Vertex 4 Y-coordinate {m}                   
    3.600000000000;  !- Vertex 4 Z-coordinate {m}                     

  BuildingSurface:Detailed,
    21,                  !- Name
    Wall,  !- Surface Type
    EXT_WALL,  !- Construction Name
    TECHNIK_U2,  !- Zone Name
    Outdoors,  !- Outside Boundary Condition
    ,  !- Outside Boundary Condition Object
    SunExposed,  !- Sun Exposure
    WindExposed,  !- Wind Exposure
    0.0,  !- TRNSYS 17 - additional surface data
    4,  !- Number of Vertices
    34.170000000000,  !- Vertex 1 X-coordinate {m}                   
    46.770000000000,  !- Vertex 1 Y-coordinate {m}                   
    3.600000000000,  !- Vertex 1 Z-coordinate {m}                     
    34.170000000000,  !- Vertex 2 X-coordinate {m}                   
    46.770000000000,  !- Vertex 2 Y-coordinate {m}                   
    0.000000000000,  !- Vertex 2 Z-coordinate {m}                     
    0.000000000000,  !- Vertex 3 X-coordinate {m}                   
    46.770000000000,  !- Vertex 3 Y-coordinate {m}                   
    0.000000000000,  !- Vertex 3 Z-coordinate {m}                     
    0.000000000000,  !- Vertex 4 X-coordinate {m}                   
    46.770000000000,  !- Vertex 4 Y-coordinate {m}                   
    3.600000000000;  !- Vertex 4 Z-coordinate {m}                     

  BuildingSurface:Detailed,
    12,                  !- Name
    Roof,  !- Surface Type
    ADJ_CEILING,  !- Construction Name
    TECHNIK_U2,  !- Zone Name
    Zone,  !- Outside Boundary Condition
    KAMMERSPIELE_U1,  !- Outside Boundary Condition Object
    NoSun,  !- Sun Exposure
    NoWind,  !- Wind Exposure
    0.0,  !- TRNSYS 17 - additional surface data
    16,  !- Number of Vertices
    0.000000000000,  !- Vertex 1 X-coordinate {m}                   
    46.770000000000,  !- Vertex 1 Y-coordinate {m}                   
    3.600000000000,  !- Vertex 1 Z-coordinate {m}                     
    0.000000000000,  !- Vertex 2 X-coordinate {m}                   
    14.180000000000,  !- Vertex 2 Y-coordinate {m}                   
    3.600000000000,  !- Vertex 2 Z-coordinate {m}                     
    8.800000000000,  !- Vertex 3 X-coordinate {m}                   
    14.180000000000,  !- Vertex 3 Y-coordinate {m}                   
    3.600000000000,  !- Vertex 3 Z-coordinate {m}                     
    8.800000000000,  !- Vertex 4 X-coordinate {m}                   
    0.000000000000,  !- Vertex 4 Y-coordinate {m}                   
    3.600000000000,  !- Vertex 4 Z-coordinate {m}                     
    45.820000000000,  !- Vertex 5 X-coordinate {m}                   
    0.000000000000,  !- Vertex 5 Y-coordinate {m}                   
    3.600000000000,  !- Vertex 5 Z-coordinate {m}                     
    45.820000000000,  !- Vertex 6 X-coordinate {m}                   
    19.710000000000,  !- Vertex 6 Y-coordinate {m}                   
    3.600000000000,  !- Vertex 6 Z-coordinate {m}                     
    41.910000000000,  !- Vertex 7 X-coordinate {m}                   
    19.710000000000,  !- Vertex 7 Y-coordinate {m}                   
    3.600000000000,  !- Vertex 7 Z-coordinate {m}                     
    41.910000000000,  !- Vertex 8 X-coordinate {m}                   
    10.410000000000,  !- Vertex 8 Y-coordinate {m}                   
    3.600000000000,  !- Vertex 8 Z-coordinate {m}                     
    39.710000000000,  !- Vertex 9 X-coordinate {m}                   
    10.410000000000,  !- Vertex 9 Y-coordinate {m}                   
    3.600000000000,  !- Vertex 9 Z-coordinate {m}                     
    39.710000000000,  !- Vertex 10 X-coordinate {m}                   
    3.060000000000,  !- Vertex 10 Y-coordinate {m}                   
    3.600000000000,  !- Vertex 10 Z-coordinate {m}                     
    34.170000000000,  !- Vertex 11 X-coordinate {m}                   
    3.060000000000,  !- Vertex 11 Y-coordinate {m}                   
    3.600000000000,  !- Vertex 11 Z-coordinate {m}                     
    34.170000000000,  !- Vertex 12 X-coordinate {m}                   
    19.710000000000,  !- Vertex 12 Y-coordinate {m}                   
    3.600000000000,  !- Vertex 12 Z-coordinate {m}                     
    29.510000000000,  !- Vertex 13 X-coordinate {m}                   
    19.710000000000,  !- Vertex 13 Y-coordinate {m}                   
    3.600000000000,  !- Vertex 13 Z-coordinate {m}                     
    29.510000000000,  !- Vertex 14 X-coordinate {m}                   
    40.570000000000,  !- Vertex 14 Y-coordinate {m}                   
    3.600000000000,  !- Vertex 14 Z-coordinate {m}                     
    34.170000000000,  !- Vertex 15 X-coordinate {m}                   
    40.570000000000,  !- Vertex 15 Y-coordinate {m}                   
    3.600000000000,  !- Vertex 15 Z-coordinate {m}                     
    34.170000000000,  !- Vertex 16 X-coordinate {m}                   
    46.770000000000,  !- Vertex 16 Y-coordinate {m}                   
    3.600000000000;  !- Vertex 16 Z-coordinate {m}                     

  BuildingSurface:Detailed,
    1,                  !- Name
    Wall,  !- Surface Type
    EXT_WALL,  !- Construction Name
    TECHNIK_U2,  !- Zone Name
    Outdoors,  !- Outside Boundary Condition
    ,  !- Outside Boundary Condition Object
    SunExposed,  !- Sun Exposure
    WindExposed,  !- Wind Exposure
    0.0,  !- TRNSYS 17 - additional surface data
    4,  !- Number of Vertices
    8.800000000000,  !- Vertex 1 X-coordinate {m}                   
    0.000000000000,  !- Vertex 1 Y-coordinate {m}                   
    3.600000000000,  !- Vertex 1 Z-coordinate {m}                     
    8.800000000000,  !- Vertex 2 X-coordinate {m}                   
    0.000000000000,  !- Vertex 2 Y-coordinate {m}                   
    0.000000000000,  !- Vertex 2 Z-coordinate {m}                     
    45.820000000000,  !- Vertex 3 X-coordinate {m}                   
    0.000000000000,  !- Vertex 3 Y-coordinate {m}                   
    0.000000000000,  !- Vertex 3 Z-coordinate {m}                     
    45.820000000000,  !- Vertex 4 X-coordinate {m}                   
    0.000000000000,  !- Vertex 4 Y-coordinate {m}                   
    3.600000000000;  !- Vertex 4 Z-coordinate {m}                     

  BuildingSurface:Detailed,
    22,                  !- Name
    Wall,  !- Surface Type
    ADJ_WALL,  !- Construction Name
    TECHNIK_U2,  !- Zone Name
    Zone,  !- Outside Boundary Condition
    ALLGEMEIN_U2,  !- Outside Boundary Condition Object
    NoSun,  !- Sun Exposure
    NoWind,  !- Wind Exposure
    FRONT,  !- TRNSYS 17 - additional surface data
    4,  !- Number of Vertices
    34.170000000000,  !- Vertex 1 X-coordinate {m}                   
    3.060000000000,  !- Vertex 1 Y-coordinate {m}                   
    3.600000000000,  !- Vertex 1 Z-coordinate {m}                     
    34.170000000000,  !- Vertex 2 X-coordinate {m}                   
    3.060000000000,  !- Vertex 2 Y-coordinate {m}                   
    0.000000000000,  !- Vertex 2 Z-coordinate {m}                     
    34.170000000000,  !- Vertex 3 X-coordinate {m}                   
    19.710000000000,  !- Vertex 3 Y-coordinate {m}                   
    0.000000000000,  !- Vertex 3 Z-coordinate {m}                     
    34.170000000000,  !- Vertex 4 X-coordinate {m}                   
    19.710000000000,  !- Vertex 4 Y-coordinate {m}                   
    3.600000000000;  !- Vertex 4 Z-coordinate {m}                     

  BuildingSurface:Detailed,
    6,                  !- Name
    Floor,  !- Surface Type
    GROUND_FLOOR,  !- Construction Name
    TECHNIK_U2,  !- Zone Name
    Ground,  !- Outside Boundary Condition
    BOUNDARY=INPUT 1*TGROUND,  !- Outside Boundary Condition Object
    NoSun,  !- Sun Exposure
    NoWind,  !- Wind Exposure
    0.0,  !- TRNSYS 17 - additional surface data
    20,  !- Number of Vertices
    34.170000000000,  !- Vertex 1 X-coordinate {m}                   
    46.770000000000,  !- Vertex 1 Y-coordinate {m}                   
    0.000000000000,  !- Vertex 1 Z-coordinate {m}                     
    34.170000000000,  !- Vertex 2 X-coordinate {m}                   
    40.570000000000,  !- Vertex 2 Y-coordinate {m}                   
    0.000000000000,  !- Vertex 2 Z-coordinate {m}                     
    29.510000000000,  !- Vertex 3 X-coordinate {m}                   
    40.570000000000,  !- Vertex 3 Y-coordinate {m}                   
    0.000000000000,  !- Vertex 3 Z-coordinate {m}                     
    29.510000000000,  !- Vertex 4 X-coordinate {m}                   
    19.710000000000,  !- Vertex 4 Y-coordinate {m}                   
    0.000000000000,  !- Vertex 4 Z-coordinate {m}                     
    34.170000000000,  !- Vertex 5 X-coordinate {m}                   
    19.710000000000,  !- Vertex 5 Y-coordinate {m}                   
    0.000000000000,  !- Vertex 5 Z-coordinate {m}                     
    34.170000000000,  !- Vertex 6 X-coordinate {m}                   
    3.060000000000,  !- Vertex 6 Y-coordinate {m}                   
    0.000000000000,  !- Vertex 6 Z-coordinate {m}                     
    39.710000000000,  !- Vertex 7 X-coordinate {m}                   
    3.060000000000,  !- Vertex 7 Y-coordinate {m}                   
    0.000000000000,  !- Vertex 7 Z-coordinate {m}                     
    39.710000000000,  !- Vertex 8 X-coordinate {m}                   
    10.410000000000,  !- Vertex 8 Y-coordinate {m}                   
    0.000000000000,  !- Vertex 8 Z-coordinate {m}                     
    41.910000000000,  !- Vertex 9 X-coordinate {m}                   
    10.410000000000,  !- Vertex 9 Y-coordinate {m}                   
    0.000000000000,  !- Vertex 9 Z-coordinate {m}                     
    41.910000000000,  !- Vertex 10 X-coordinate {m}                   
    19.710000000000,  !- Vertex 10 Y-coordinate {m}                   
    0.000000000000,  !- Vertex 10 Z-coordinate {m}                     
    45.820000000000,  !- Vertex 11 X-coordinate {m}                   
    19.710000000000,  !- Vertex 11 Y-coordinate {m}                   
    0.000000000000,  !- Vertex 11 Z-coordinate {m}                     
    45.820000000000,  !- Vertex 12 X-coordinate {m}                   
    0.000000000000,  !- Vertex 12 Y-coordinate {m}                   
    0.000000000000,  !- Vertex 12 Z-coordinate {m}                     
    8.800000000000,  !- Vertex 13 X-coordinate {m}                   
    0.000000000000,  !- Vertex 13 Y-coordinate {m}                   
    0.000000000000,  !- Vertex 13 Z-coordinate {m}                     
    8.800000000000,  !- Vertex 14 X-coordinate {m}                   
    14.180000000000,  !- Vertex 14 Y-coordinate {m}                   
    0.000000000000,  !- Vertex 14 Z-coordinate {m}                     
    0.000000000000,  !- Vertex 15 X-coordinate {m}                   
    14.180000000000,  !- Vertex 15 Y-coordinate {m}                   
    0.000000000000,  !- Vertex 15 Z-coordinate {m}                     
    0.000000000000,  !- Vertex 16 X-coordinate {m}                   
    28.050000000000,  !- Vertex 16 Y-coordinate {m}                   
    0.000000000000,  !- Vertex 16 Z-coordinate {m}                     
    -1.000000000000,  !- Vertex 17 X-coordinate {m}                   
    28.050000000000,  !- Vertex 17 Y-coordinate {m}                   
    0.000000000000,  !- Vertex 17 Z-coordinate {m}                     
    -1.000000000000,  !- Vertex 18 X-coordinate {m}                   
    37.370000000000,  !- Vertex 18 Y-coordinate {m}                   
    0.000000000000,  !- Vertex 18 Z-coordinate {m}                     
    0.000000000000,  !- Vertex 19 X-coordinate {m}                   
    37.370000000000,  !- Vertex 19 Y-coordinate {m}                   
    0.000000000000,  !- Vertex 19 Z-coordinate {m}                     
    0.000000000000,  !- Vertex 20 X-coordinate {m}                   
    46.770000000000,  !- Vertex 20 Y-coordinate {m}                   
    0.000000000000;  !- Vertex 20 Z-coordinate {m}                     

  BuildingSurface:Detailed,
    18,                  !- Name
    Wall,  !- Surface Type
    EXT_WALL,  !- Construction Name
    TECHNIK_U2,  !- Zone Name
    Outdoors,  !- Outside Boundary Condition
    ,  !- Outside Boundary Condition Object
    SunExposed,  !- Sun Exposure
    WindExposed,  !- Wind Exposure
    0.0,  !- TRNSYS 17 - additional surface data
    4,  !- Number of Vertices
    0.000000000000,  !- Vertex 1 X-coordinate {m}                   
    14.180000000000,  !- Vertex 1 Y-coordinate {m}                   
    3.600000000000,  !- Vertex 1 Z-coordinate {m}                     
    0.000000000000,  !- Vertex 2 X-coordinate {m}                   
    14.180000000000,  !- Vertex 2 Y-coordinate {m}                   
    0.000000000000,  !- Vertex 2 Z-coordinate {m}                     
    8.800000000000,  !- Vertex 3 X-coordinate {m}                   
    14.180000000000,  !- Vertex 3 Y-coordinate {m}                   
    0.000000000000,  !- Vertex 3 Z-coordinate {m}                     
    8.800000000000,  !- Vertex 4 X-coordinate {m}                   
    14.180000000000,  !- Vertex 4 Y-coordinate {m}                   
    3.600000000000;  !- Vertex 4 Z-coordinate {m}                     

  BuildingSurface:Detailed,
    20,                  !- Name
    Wall,  !- Surface Type
    ADJ_WALL,  !- Construction Name
    TECHNIK_U2,  !- Zone Name
    Zone,  !- Outside Boundary Condition
    ALLGEMEIN_U2,  !- Outside Boundary Condition Object
    NoSun,  !- Sun Exposure
    NoWind,  !- Wind Exposure
    FRONT,  !- TRNSYS 17 - additional surface data
    4,  !- Number of Vertices
    41.910000000000,  !- Vertex 1 X-coordinate {m}                   
    19.710000000000,  !- Vertex 1 Y-coordinate {m}                   
    3.600000000000,  !- Vertex 1 Z-coordinate {m}                     
    41.910000000000,  !- Vertex 2 X-coordinate {m}                   
    19.710000000000,  !- Vertex 2 Y-coordinate {m}                   
    0.000000000000,  !- Vertex 2 Z-coordinate {m}                     
    41.910000000000,  !- Vertex 3 X-coordinate {m}                   
    10.410000000000,  !- Vertex 3 Y-coordinate {m}                   
    0.000000000000,  !- Vertex 3 Z-coordinate {m}                     
    41.910000000000,  !- Vertex 4 X-coordinate {m}                   
    10.410000000000,  !- Vertex 4 Y-coordinate {m}                   
    3.600000000000;  !- Vertex 4 Z-coordinate {m}                     

  BuildingSurface:Detailed,
    78,                  !- Name
    Wall,  !- Surface Type
    ADJ_WALL,  !- Construction Name
    TECHNIK_U2,  !- Zone Name
    Zone,  !- Outside Boundary Condition
    ALLGEMEIN_U2,  !- Outside Boundary Condition Object
    NoSun,  !- Sun Exposure
    NoWind,  !- Wind Exposure
    0.0,  !- TRNSYS 17 - additional surface data
    4,  !- Number of Vertices
    39.710000000000,  !- Vertex 1 X-coordinate {m}                   
    3.060000000000,  !- Vertex 1 Y-coordinate {m}                   
    3.600000000000,  !- Vertex 1 Z-coordinate {m}                     
    39.710000000000,  !- Vertex 2 X-coordinate {m}                   
    3.060000000000,  !- Vertex 2 Y-coordinate {m}                   
    0.000000000000,  !- Vertex 2 Z-coordinate {m}                     
    34.170000000000,  !- Vertex 3 X-coordinate {m}                   
    3.060000000000,  !- Vertex 3 Y-coordinate {m}                   
    0.000000000000,  !- Vertex 3 Z-coordinate {m}                     
    34.170000000000,  !- Vertex 4 X-coordinate {m}                   
    3.060000000000,  !- Vertex 4 Y-coordinate {m}                   
    3.600000000000;  !- Vertex 4 Z-coordinate {m}                     

  BuildingSurface:Detailed,
    17,                  !- Name
    Wall,  !- Surface Type
    ADJ_WALL,  !- Construction Name
    TECHNIK_U2,  !- Zone Name
    Zone,  !- Outside Boundary Condition
    ALLGEMEIN_U2,  !- Outside Boundary Condition Object
    NoSun,  !- Sun Exposure
    NoWind,  !- Wind Exposure
    FRONT,  !- TRNSYS 17 - additional surface data
    4,  !- Number of Vertices
    45.820000000000,  !- Vertex 1 X-coordinate {m}                   
    19.710000000000,  !- Vertex 1 Y-coordinate {m}                   
    3.600000000000,  !- Vertex 1 Z-coordinate {m}                     
    45.820000000000,  !- Vertex 2 X-coordinate {m}                   
    19.710000000000,  !- Vertex 2 Y-coordinate {m}                   
    0.000000000000,  !- Vertex 2 Z-coordinate {m}                     
    41.910000000000,  !- Vertex 3 X-coordinate {m}                   
    19.710000000000,  !- Vertex 3 Y-coordinate {m}                   
    0.000000000000,  !- Vertex 3 Z-coordinate {m}                     
    41.910000000000,  !- Vertex 4 X-coordinate {m}                   
    19.710000000000,  !- Vertex 4 Y-coordinate {m}                   
    3.600000000000;  !- Vertex 4 Z-coordinate {m}                     

  BuildingSurface:Detailed,
    2,                  !- Name
    Wall,  !- Surface Type
    ADJ_WALL,  !- Construction Name
    TECHNIK_U2,  !- Zone Name
    Zone,  !- Outside Boundary Condition
    ALLGEMEIN_U2,  !- Outside Boundary Condition Object
    NoSun,  !- Sun Exposure
    NoWind,  !- Wind Exposure
    FRONT,  !- TRNSYS 17 - additional surface data
    4,  !- Number of Vertices
    41.910000000000,  !- Vertex 1 X-coordinate {m}                   
    10.410000000000,  !- Vertex 1 Y-coordinate {m}                   
    3.600000000000,  !- Vertex 1 Z-coordinate {m}                     
    41.910000000000,  !- Vertex 2 X-coordinate {m}                   
    10.410000000000,  !- Vertex 2 Y-coordinate {m}                   
    0.000000000000,  !- Vertex 2 Z-coordinate {m}                     
    39.710000000000,  !- Vertex 3 X-coordinate {m}                   
    10.410000000000,  !- Vertex 3 Y-coordinate {m}                   
    0.000000000000,  !- Vertex 3 Z-coordinate {m}                     
    39.710000000000,  !- Vertex 4 X-coordinate {m}                   
    10.410000000000,  !- Vertex 4 Y-coordinate {m}                   
    3.600000000000;  !- Vertex 4 Z-coordinate {m}                     

  BuildingSurface:Detailed,
    7,                  !- Name
    Wall,  !- Surface Type
    EXT_WALL,  !- Construction Name
    TECHNIK_U2,  !- Zone Name
    Outdoors,  !- Outside Boundary Condition
    ,  !- Outside Boundary Condition Object
    SunExposed,  !- Sun Exposure
    WindExposed,  !- Wind Exposure
    0.0,  !- TRNSYS 17 - additional surface data
    4,  !- Number of Vertices
    0.000000000000,  !- Vertex 1 X-coordinate {m}                   
    37.370000000000,  !- Vertex 1 Y-coordinate {m}                   
    3.600000000000,  !- Vertex 1 Z-coordinate {m}                     
    0.000000000000,  !- Vertex 2 X-coordinate {m}                   
    37.370000000000,  !- Vertex 2 Y-coordinate {m}                   
    0.000000000000,  !- Vertex 2 Z-coordinate {m}                     
    -1.000000000000,  !- Vertex 3 X-coordinate {m}                   
    37.370000000000,  !- Vertex 3 Y-coordinate {m}                   
    0.000000000000,  !- Vertex 3 Z-coordinate {m}                     
    -1.000000000000,  !- Vertex 4 X-coordinate {m}                   
    37.370000000000,  !- Vertex 4 Y-coordinate {m}                   
    3.600000000000;  !- Vertex 4 Z-coordinate {m}                     

  BuildingSurface:Detailed,
    10,                  !- Name
    Wall,  !- Surface Type
    EXT_WALL,  !- Construction Name
    TECHNIK_U2,  !- Zone Name
    Outdoors,  !- Outside Boundary Condition
    ,  !- Outside Boundary Condition Object
    SunExposed,  !- Sun Exposure
    WindExposed,  !- Wind Exposure
    0.0,  !- TRNSYS 17 - additional surface data
    4,  !- Number of Vertices
    0.000000000000,  !- Vertex 1 X-coordinate {m}                   
    28.050000000000,  !- Vertex 1 Y-coordinate {m}                   
    3.600000000000,  !- Vertex 1 Z-coordinate {m}                     
    0.000000000000,  !- Vertex 2 X-coordinate {m}                   
    28.050000000000,  !- Vertex 2 Y-coordinate {m}                   
    0.000000000000,  !- Vertex 2 Z-coordinate {m}                     
    0.000000000000,  !- Vertex 3 X-coordinate {m}                   
    14.180000000000,  !- Vertex 3 Y-coordinate {m}                   
    0.000000000000,  !- Vertex 3 Z-coordinate {m}                     
    0.000000000000,  !- Vertex 4 X-coordinate {m}                   
    14.180000000000,  !- Vertex 4 Y-coordinate {m}                   
    3.600000000000;  !- Vertex 4 Z-coordinate {m}                     

  BuildingSurface:Detailed,
    19,                  !- Name
    Wall,  !- Surface Type
    EXT_WALL,  !- Construction Name
    TECHNIK_U2,  !- Zone Name
    Outdoors,  !- Outside Boundary Condition
    ,  !- Outside Boundary Condition Object