

!-   ===========  ALL OBJECTS IN CLASS: VERSION ===========
 
  Version,5.0;
 
!-   ===========  ALL OBJECTS IN CLASS: BUILDING ===========
 
  Building,
    Haus der Musik,                !- Name
    0.0,                     !- North Axis {deg}
    City,                    !- Terrain
    0,                    !- Loads Convergence Tolerance Value
    0,                     !- Temperature Convergence Tolerance Value {deltaC}
    FullInteriorAndExterior, !- Solar Distribution
    0;                      !- Maximum Number of Warmup Days
 
!-   ===========  ALL OBJECTS IN CLASS: LOCATION ===========
 
  Site:Location,
    not used,  !- Name
    0.0,                   !- Latitude {deg}
    0.0,                  !- Longitude {deg}
    0.0,                    !- Time Zone {hr}
    0;                  !- Elevation {m}
 
  GlobalGeometryRules,
    UpperLeftCorner,         !- Starting Vertex Position
    Counterclockwise,        !- Vertex Entry Direction
    Absolute;                !- Coordinate System
 
 
!-   ===========  ALL OBJECTS IN CLASS: CONSTRUCTION ===========
 
  Construction,
    GROUND_FLOOR;      !- Name
  Construction,
    EXT_WALL;           !- Name
 
  Construction,
    EXT_FLOOR;        !- Name
  Construction,
    EXT_ROOF;           !- Name
Construction,
    BND_WALL;         !- Name
Construction,    
    BND_FLOOR;        !- Name
Construction,
    BND_CEILING;      !- Name
Construction,
    ADJ_WALL;         !- Name
  Construction,
    ADJ_CEILING;        !- Name
 
  Construction,
    VirtualSurface;   !- Name
  Construction,
    EXT_WINDOW1;         !- Name
  Construction,
    EXT_WINDOW2;         !- Name
  Construction,
    ADJ_WINDOW;          !- Name
  Construction,
    ADJ_WINDOW2;          !- Name
 
!-   ===========  ALL OBJECTS IN CLASS: SurfaceProperty:OtherSideCoefficients ===========
SurfaceProperty:OtherSideCoefficients,
    BOUNDARY=IDENTICAL;
SurfaceProperty:OtherSideCoefficients,
    BOUNDARY=INPUT 1*TBOUNDARY;
SurfaceProperty:OtherSideCoefficients,   
    BOUNDARY=INPUT 1*TBOUNDARY_2;
SurfaceProperty:OtherSideCoefficients,
    BOUNDARY=INPUT 1*TBOUNDARY_3;
SurfaceProperty:OtherSideCoefficients,   
    BOUNDARY=INPUT 1*TGROUND;
SurfaceProperty:OtherSideCoefficients,
    BOUNDARY=20; 
SurfaceProperty:OtherSideCoefficients,
    BOUNDARY=15; 
 
!-   ===========  ALL OBJECTS IN CLASS: WindowProperty:ShadingControl ===========
  WindowProperty:ShadingControl,
    ESHADE=0; ISHADE=0 !- Name
  WindowProperty:ShadingControl,
    ESHADE=INPUT 1*MAX_ESHADE : SHADECNTRL=ESHADE_INTERNAL;  !- Name
  WindowProperty:ShadingControl,
    ISHADE=INPUT 1*MAX_ISHADE : SHADECNTRL=ISHADE_INTERNAL;  !- Name

 
 !-   ===========  ALL OBJECTS IN CLASS: OUTPUT:VARIABLEDICTIONARY ===========
 
  Output:VariableDictionary,IDF;
 


  Zone,
    Konzertsaal,  !- Name
    0.0,  !- Direction of Relative North {deg}
    0.0,  !- X Origin {m}
    0.0,  !- Y Origin {m}
    0.0,  !- Z Origin {m}
    ,  !- Type
    1;  !- Multiplier

  BuildingSurface:Detailed,
    1,                  !- Name
    Wall,  !- Surface Type
    EXT_WALL,  !- Construction Name
    Konzertsaal,  !- Zone Name
    Outdoors,  !- Outside Boundary Condition
    ,  !- Outside Boundary Condition Object
    SunExposed,  !- Sun Exposure
    WindExposed,  !- Wind Exposure
    ,  !- TRNSYS 17 - additional surface data
    4,  !- Number of Vertices
    35.620000000000,  !- Vertex 1 X-coordinate {m}                   
    42.420000000000,  !- Vertex 1 Y-coordinate {m}                   
    3.600000000000,  !- Vertex 1 Z-coordinate {m}                     
    35.620000000000,  !- Vertex 2 X-coordinate {m}                   
    42.420000000000,  !- Vertex 2 Y-coordinate {m}                   
    0.000000000000,  !- Vertex 2 Z-coordinate {m}                     
    34.170000000000,  !- Vertex 3 X-coordinate {m}                   
    42.420000000000,  !- Vertex 3 Y-coordinate {m}                   
    0.000000000000,  !- Vertex 3 Z-coordinate {m}                     
    34.170000000000,  !- Vertex 4 X-coordinate {m}                   
    42.420000000000,  !- Vertex 4 Y-coordinate {m}                   
    3.600000000000;  !- Vertex 4 Z-coordinate {m}                     

  BuildingSurface:Detailed,
    2,                  !- Name
    Wall,  !- Surface Type
    EXT_WALL,  !- Construction Name
    Konzertsaal,  !- Zone Name
    Outdoors,  !- Outside Boundary Condition
    ,  !- Outside Boundary Condition Object
    SunExposed,  !- Sun Exposure
    WindExposed,  !- Wind Exposure
    ,  !- TRNSYS 17 - additional surface data
    4,  !- Number of Vertices
    29.870000000000,  !- Vertex 1 X-coordinate {m}                   
    40.570000000000,  !- Vertex 1 Y-coordinate {m}                   
    3.600000000000,  !- Vertex 1 Z-coordinate {m}                     
    29.870000000000,  !- Vertex 2 X-coordinate {m}                   
    40.570000000000,  !- Vertex 2 Y-coordinate {m}                   
    0.000000000000,  !- Vertex 2 Z-coordinate {m}                     
    29.870000000000,  !- Vertex 3 X-coordinate {m}                   
    19.710000000000,  !- Vertex 3 Y-coordinate {m}                   
    0.000000000000,  !- Vertex 3 Z-coordinate {m}                     
    29.870000000000,  !- Vertex 4 X-coordinate {m}                   
    19.710000000000,  !- Vertex 4 Y-coordinate {m}                   
    3.600000000000;  !- Vertex 4 Z-coordinate {m}                     

  BuildingSurface:Detailed,
    3,                  !- Name
    Wall,  !- Surface Type
    EXT_WALL,  !- Construction Name
    Konzertsaal,  !- Zone Name
    Outdoors,  !- Outside Boundary Condition
    ,  !- Outside Boundary Condition Object
    SunExposed,  !- Sun Exposure
    WindExposed,  !- Wind Exposure
    ,  !- TRNSYS 17 - additional surface data
    4,  !- Number of Vertices
    34.170000000000,  !- Vertex 1 X-coordinate {m}                   
    42.420000000000,  !- Vertex 1 Y-coordinate {m}                   
    3.600000000000,  !- Vertex 1 Z-coordinate {m}                     
    34.170000000000,  !- Vertex 2 X-coordinate {m}                   
    42.420000000000,  !- Vertex 2 Y-coordinate {m}                   
    0.000000000000,  !- Vertex 2 Z-coordinate {m}                     
    34.170000000000,  !- Vertex 3 X-coordinate {m}                   
    40.570000000000,  !- Vertex 3 Y-coordinate {m}                   
    0.000000000000,  !- Vertex 3 Z-coordinate {m}                     
    34.170000000000,  !- Vertex 4 X-coordinate {m}                   
    40.570000000000,  !- Vertex 4 Y-coordinate {m}                   
    3.600000000000;  !- Vertex 4 Z-coordinate {m}                     

  BuildingSurface:Detailed,
    4,                  !- Name
    Wall,  !- Surface Type
    EXT_WALL,  !- Construction Name
    Konzertsaal,  !- Zone Name
    Outdoors,  !- Outside Boundary Condition
    ,  !- Outside Boundary Condition Object
    SunExposed,  !- Sun Exposure
    WindExposed,  !- Wind Exposure
    ,  !- TRNSYS 17 - additional surface data
    4,  !- Number of Vertices
    17.700000000000,  !- Vertex 1 X-coordinate {m}                   
    40.570000000000,  !- Vertex 1 Y-coordinate {m}                   
    10.010000000000,  !- Vertex 1 Z-coordinate {m}                     
    17.700000000000,  !- Vertex 2 X-coordinate {m}                   
    40.570000000000,  !- Vertex 2 Y-coordinate {m}                   
    3.600000000000,  !- Vertex 2 Z-coordinate {m}                     
    17.700000000000,  !- Vertex 3 X-coordinate {m}                   
    19.710000000000,  !- Vertex 3 Y-coordinate {m}                   
    3.600000000000,  !- Vertex 3 Z-coordinate {m}                     
    17.700000000000,  !- Vertex 4 X-coordinate {m}                   
    19.710000000000,  !- Vertex 4 Y-coordinate {m}                   
    10.010000000000;  !- Vertex 4 Z-coordinate {m}                     

  BuildingSurface:Detailed,
    5,                  !- Name
    Roof,  !- Surface Type
    EXT_ROOF,  !- Construction Name
    Konzertsaal,  !- Zone Name
    Outdoors,  !- Outside Boundary Condition
    ,  !- Outside Boundary Condition Object
    SunExposed,  !- Sun Exposure
    WindExposed,  !- Wind Exposure
    ,  !- TRNSYS 17 - additional surface data
    4,  !- Number of Vertices
    17.700000000000,  !- Vertex 1 X-coordinate {m}                   
    40.570000000000,  !- Vertex 1 Y-coordinate {m}                   
    3.600000000000,  !- Vertex 1 Z-coordinate {m}                     
    17.700000000000,  !- Vertex 2 X-coordinate {m}                   
    19.710000000000,  !- Vertex 2 Y-coordinate {m}                   
    3.600000000000,  !- Vertex 2 Z-coordinate {m}                     
    29.870000000000,  !- Vertex 3 X-coordinate {m}                   
    19.710000000000,  !- Vertex 3 Y-coordinate {m}                   
    3.600000000000,  !- Vertex 3 Z-coordinate {m}                     
    29.870000000000,  !- Vertex 4 X-coordinate {m}                   
    40.570000000000,  !- Vertex 4 Y-coordinate {m}                   
    3.600000000000;  !- Vertex 4 Z-coordinate {m}                     

  BuildingSurface:Detailed,
    6,                  !- Name
    Roof,  !- Surface Type
    EXT_ROOF,  !- Construction Name
    Konzertsaal,  !- Zone Name
    Outdoors,  !- Outside Boundary Condition
    ,  !- Outside Boundary Condition Object
    SunExposed,  !- Sun Exposure
    WindExposed,  !- Wind Exposure
    ,  !- TRNSYS 17 - additional surface data
    4,  !- Number of Vertices
    34.170000000000,  !- Vertex 1 X-coordinate {m}                   
    42.420000000000,  !- Vertex 1 Y-coordinate {m}                   
    3.600000000000,  !- Vertex 1 Z-coordinate {m}                     
    34.170000000000,  !- Vertex 2 X-coordinate {m}                   
    40.570000000000,  !- Vertex 2 Y-coordinate {m}                   
    3.600000000000,  !- Vertex 2 Z-coordinate {m}                     
    35.620000000000,  !- Vertex 3 X-coordinate {m}                   
    40.570000000000,  !- Vertex 3 Y-coordinate {m}                   
    3.600000000000,  !- Vertex 3 Z-coordinate {m}                     
    35.620000000000,  !- Vertex 4 X-coordinate {m}                   
    42.420000000000,  !- Vertex 4 Y-coordinate {m}                   
    3.600000000000;  !- Vertex 4 Z-coordinate {m}                     

  BuildingSurface:Detailed,
    7,                  !- Name
    Wall,  !- Surface Type
    EXT_WALL,  !- Construction Name
    Konzertsaal,  !- Zone Name
    Outdoors,  !- Outside Boundary Condition
    ,  !- Outside Boundary Condition Object
    SunExposed,  !- Sun Exposure
    WindExposed,  !- Wind Exposure
    ,  !- TRNSYS 17 - additional surface data
    0,  !- Number of Vertices

  BuildingSurface:Detailed,
    8,                  !- Name
    Roof,  !- Surface Type
    EXT_ROOF,  !- Construction Name
    Konzertsaal,  !- Zone Name
    Outdoors,  !- Outside Boundary Condition
    ,  !- Outside Boundary Condition Object
    SunExposed,  !- Sun Exposure
    WindExposed,  !- Wind Exposure
    ,  !- TRNSYS 17 - additional surface data
    4,  !- Number of Vertices
    17.700000000000,  !- Vertex 1 X-coordinate {m}                   
    40.570000000000,  !- Vertex 1 Y-coordinate {m}                   
    10.010000000000,  !- Vertex 1 Z-coordinate {m}                     
    17.700000000000,  !- Vertex 2 X-coordinate {m}                   
    19.710000000000,  !- Vertex 2 Y-coordinate {m}                   
    10.010000000000,  !- Vertex 2 Z-coordinate {m}                     
    41.910000000000,  !- Vertex 3 X-coordinate {m}                   
    19.710000000000,  !- Vertex 3 Y-coordinate {m}                   
    10.010000000000,  !- Vertex 3 Z-coordinate {m}                     
    41.910000000000,  !- Vertex 4 X-coordinate {m}                   
    40.570000000000,  !- Vertex 4 Y-coordinate {m}                   
    10.010000000000;  !- Vertex 4 Z-coordinate {m}                     

  BuildingSurface:Detailed,
    9,                  !- Name
    Wall,  !- Surface Type
    EXT_WALL,  !- Construction Name
    Konzertsaal,  !- Zone Name
    Outdoors,  !- Outside Boundary Condition
    ,  !- Outside Boundary Condition Object
    SunExposed,  !- Sun Exposure
    WindExposed,  !- Wind Exposure
    ,  !- TRNSYS 17 - additional surface data
    6,  !- Number of Vertices
    35.620000000000,  !- Vertex 1 X-coordinate {m}                   
    42.420000000000,  !- Vertex 1 Y-coordinate {m}                   
    0.000000000000,  !- Vertex 1 Z-coordinate {m}                     
    35.620000000000,  !- Vertex 2 X-coordinate {m}                   
    19.710000000000,  !- Vertex 2 Y-coordinate {m}                   
    0.000000000000,  !- Vertex 2 Z-coordinate {m}                     
    29.870000000000,  !- Vertex 3 X-coordinate {m}                   
    19.710000000000,  !- Vertex 3 Y-coordinate {m}                   
    0.000000000000,  !- Vertex 3 Z-coordinate {m}                     
    29.870000000000,  !- Vertex 4 X-coordinate {m}                   
    40.570000000000,  !- Vertex 4 Y-coordinate {m}                   
    0.000000000000,  !- Vertex 4 Z-coordinate {m}                     
    34.170000000000,  !- Vertex 5 X-coordinate {m}                   
    40.570000000000,  !- Vertex 5 Y-coordinate {m}                   
    0.000000000000,  !- Vertex 5 Z-coordinate {m}                     
    34.170000000000,  !- Vertex 6 X-coordinate {m}                   
    42.420000000000,  !- Vertex 6 Y-coordinate {m}                   
    0.000000000000;  !- Vertex 6 Z-coordinate {m}                     

  BuildingSurface:Detailed,
    10,                  !- Name
    Wall,  !- Surface Type
    EXT_WALL,  !- Construction Name
    Konzertsaal,  !- Zone Name
    Outdoors,  !- Outside Boundary Condition
    ,  !- Outside Boundary Condition Object
    SunExposed,  !- Sun Exposure
    WindExposed,  !- Wind Exposure
    ,  !- TRNSYS 17 - additional surface data
    4,  !- Number of Vertices
    41.910000000000,  !- Vertex 1 X-coordinate {m}                   
    19.710000000000,  !- Vertex 1 Y-coordinate {m}                   
    10.010000000000,  !- Vertex 1 Z-coordinate {m}                     
    41.910000000000,  !- Vertex 2 X-coordinate {m}                   
    19.710000000000,  !- Vertex 2 Y-coordinate {m}                   
    3.600000000000,  !- Vertex 2 Z-coordinate {m}                     
    41.910000000000,  !- Vertex 3 X-coordinate {m}                   
    40.570000000000,  !- Vertex 3 Y-coordinate {m}                   
    3.600000000000,  !- Vertex 3 Z-coordinate {m}                     
    41.910000000000,  !- Vertex 4 X-coordinate {m}                   
    40.570000000000,  !- Vertex 4 Y-coordinate {m}                   
    10.010000000000;  !- Vertex 4 Z-coordinate {m}                     

  BuildingSurface:Detailed,
    11,                  !- Name
    Roof,  !- Surface Type
    EXT_ROOF,  !- Construction Name
    Konzertsaal,  !- Zone Name
    Outdoors,  !- Outside Boundary Condition
    ,  !- Outside Boundary Condition Object
    SunExposed,  !- Sun Exposure
    WindExposed,  !- Wind Exposure
    ,  !- TRNSYS 17 - additional surface data
    4,  !- Number of Vertices
    35.620000000000,  !- Vertex 1 X-coordinate {m}                   
    40.570000000000,  !- Vertex 1 Y-coordinate {m}                   
    3.600000000000,  !- Vertex 1 Z-coordinate {m}                     
    35.620000000000,  !- Vertex 2 X-coordinate {m}                   
    19.710000000000,  !- Vertex 2 Y-coordinate {m}                   
    3.600000000000,  !- Vertex 2 Z-coordinate {m}                     
    41.910000000000,  !- Vertex 3 X-coordinate {m}                   
    19.710000000000,  !- Vertex 3 Y-coordinate {m}                   
    3.600000000000,  !- Vertex 3 Z-coordinate {m}                     
    41.910000000000,  !- Vertex 4 X-coordinate {m}                   
    40.570000000000,  !- Vertex 4 Y-coordinate {m}                   
    3.600000000000;  !- Vertex 4 Z-coordinate {m}                     

  Zone,
    Allgemein,  !- Name
    0.0,  !- Direction of Relative North {deg}
    0.0,  !- X Origin {m}
    0.0,  !- Y Origin {m}
    0.0,  !- Z Origin {m}
    ,  !- Type
    1;  !- Multiplier

  BuildingSurface:Detailed,
    12,                  !- Name
    Wall,  !- Surface Type
    EXT_WALL,  !- Construction Name
    Allgemein,  !- Zone Name
    Outdoors,  !- Outside Boundary Condition
    ,  !- Outside Boundary Condition Object
    SunExposed,  !- Sun Exposure
    WindExposed,  !- Wind Exposure
    ,  !- TRNSYS 17 - additional surface data
    4,  !- Number of Vertices
    35.620000000000,  !- Vertex 1 X-coordinate {m}                   
    42.420000000000,  !- Vertex 1 Y-coordinate {m}                   
    3.600000000000,  !- Vertex 1 Z-coordinate {m}                     
    35.620000000000,  !- Vertex 2 X-coordinate {m}                   
    42.420000000000,  !- Vertex 2 Y-coordinate {m}                   
    0.000000000000,  !- Vertex 2 Z-coordinate {m}                     
    35.620000000000,  !- Vertex 3 X-coordinate {m}                   
    19.710000000000,  !- Vertex 3 Y-coordinate {m}                   
    0.000000000000,  !- Vertex 3 Z-coordinate {m}                     
    35.620000000000,  !- Vertex 4 X-coordinate {m}                   
    19.710000000000,  !- Vertex 4 Y-coordinate {m}                   
    3.600000000000;  !- Vertex 4 Z-coordinate {m}                     

  BuildingSurface:Detailed,
    13,                  !- Name
    Wall,  !- Surface Type
    EXT_WALL,  !- Construction Name
    Allgemein,  !- Zone Name
    Outdoors,  !- Outside Boundary Condition
    ,  !- Outside Boundary Condition Object
    SunExposed,  !- Sun Exposure
    WindExposed,  !- Wind Exposure
    ,  !- TRNSYS 17 - additional surface data
    4,  !- Number of Vertices
    39.710000000000,  !- Vertex 1 X-coordinate {m}                   
    3.060000000000,  !- Vertex 1 Y-coordinate {m}                   
    3.600000000000,  !- Vertex 1 Z-coordinate {m}                     
    39.710000000000,  !- Vertex 2 X-coordinate {m}                   
    3.060000000000,  !- Vertex 2 Y-coordinate {m}                   
    0.000000000000,  !- Vertex 2 Z-coordinate {m}                     
    39.710000000000,  !- Vertex 3 X-coordinate {m}                   
    10.410000000000,  !- Vertex 3 Y-coordinate {m}                   
    0.000000000000,  !- Vertex 3 Z-coordinate {m}                     
    39.710000000000,  !- Vertex 4 X-coordinate {m}                   
    10.410000000000,  !- Vertex 4 Y-coordinate {m}                   
    3.600000000000;  !- Vertex 4 Z-coordinate {m}                     

  BuildingSurface:Detailed,
    14,                  !- Name
    Wall,  !- Surface Type
    EXT_WALL,  !- Construction Name
    Allgemein,  !- Zone Name
    Outdoors,  !- Outside Boundary Condition
    ,  !- Outside Boundary Condition Object
    SunExposed,  !- Sun Exposure
    WindExposed,  !- Wind Exposure
    ,  !- TRNSYS 17 - additional surface data
    4,  !- Number of Vertices
    39.710000000000,  !- Vertex 1 X-coordinate {m}                   
    10.410000000000,  !- Vertex 1 Y-coordinate {m}                   
    3.600000000000,  !- Vertex 1 Z-coordinate {m}                     
    39.710000000000,  !- Vertex 2 X-coordinate {m}                   
    10.410000000000,  !- Vertex 2 Y-coordinate {m}                   
    0.000000000000,  !- Vertex 2 Z-coordinate {m}                     
    41.910000000000,  !- Vertex 3 X-coordinate {m}                   
    10.410000000000,  !- Vertex 3 Y-coordinate {m}                   
    0.000000000000,  !- Vertex 3 Z-coordinate {m}                     
    41.910000000000,  !- Vertex 4 X-coordinate {m}                   
    10.410000000000,  !- Vertex 4 Y-coordinate {m}                   
    3.600000000000;  !- Vertex 4 Z-coordinate {m}                     

  BuildingSurface:Detailed,
    15,                  !- Name
    Roof,  !- Surface Type
    EXT_ROOF,  !- Construction Name
    Allgemein,  !- Zone Name
    Outdoors,  !- Outside Boundary Condition
    ,  !- Outside Boundary Condition Object
    SunExposed,  !- Sun Exposure
    WindExposed,  !- Wind Exposure
    ,  !- TRNSYS 17 - additional surface data
    10,  !- Number of Vertices
    35.620000000000,  !- Vertex 1 X-coordinate {m}                   
    42.420000000000,  !- Vertex 1 Y-coordinate {m}                   
    3.600000000000,  !- Vertex 1 Z-coordinate {m}                     
    35.620000000000,  !- Vertex 2 X-coordinate {m}                   
    19.710000000000,  !- Vertex 2 Y-coordinate {m}                   
    3.600000000000,  !- Vertex 2 Z-coordinate {m}                     
    33.960000000000,  !- Vertex 3 X-coordinate {m}                   
    19.710000000000,  !- Vertex 3 Y-coordinate {m}                   
    3.600000000000,  !- Vertex 3 Z-coordinate {m}                     
    33.960000000000,  !- Vertex 4 X-coordinate {m}                   
    3.060000000000,  !- Vertex 4 Y-coordinate {m}                   
    3.600000000000,  !- Vertex 4 Z-coordinate {m}                     
    39.710000000000,  !- Vertex 5 X-coordinate {m}                   
    3.060000000000,  !- Vertex 5 Y-coordinate {m}                   
    3.600000000000,  !- Vertex 5 Z-coordinate {m}                     
    39.710000000000,  !- Vertex 6 X-coordinate {m}                   
    10.410000000000,  !- Vertex 6 Y-coordinate {m}                   
    3.600000000000,  !- Vertex 6 Z-coordinate {m}                     
    41.910000000000,  !- Vertex 7 X-coordinate {m}                   
    10.410000000000,  !- Vertex 7 Y-coordinate {m}                   
    3.600000000000,  !- Vertex 7 Z-coordinate {m}                     
    41.910000000000,  !- Vertex 8 X-coordinate {m}                   
    19.710000000000,  !- Vertex 8 Y-coordinate {m}                   
    3.600000000000,  !- Vertex 8 Z-coordinate {m}                     
    45.820000000000,  !- Vertex 9 X-coordinate {m}                   
    19.710000000000,  !- Vertex 9 Y-coordinate {m}                   
    3.600000000000,  !- Vertex 9 Z-coordinate {m}                     
    45.820000000000,  !- Vertex 10 X-coordinate {m}                   
    42.420000000000,  !- Vertex 10 Y-coordinate {m}                   
    3.600000000000;  !- Vertex 10 Z-coordinate {m}                     

  BuildingSurface:Detailed,
    16,                  !- Name
    Wall,  !- Surface Type
    EXT_WALL,  !- Construction Name
    Allgemein,  !- Zone Name
    Outdoors,  !- Outside Boundary Condition
    ,  !- Outside Boundary Condition Object
    SunExposed,  !- Sun Exposure
    WindExposed,  !- Wind Exposure
    ,  !- TRNSYS 17 - additional surface data
    4,  !- Number of Vertices
    41.910000000000,  !- Vertex 1 X-coordinate {m}                   
    10.410000000000,  !- Vertex 1 Y-coordinate {m}                   
    3.600000000000,  !- Vertex 1 Z-coordinate {m}                     
    41.910000000000,  !- Vertex 2 X-coordinate {m}                   
    10.410000000000,  !- Vertex 2 Y-coordinate {m}                   
    0.000000000000,  !- Vertex 2 Z-coordinate {m}                     
    41.910000000000,  !- Vertex 3 X-coordinate {m}                   
    19.710000000000,  !- Vertex 3 Y-coordinate {m}                   
    0.000000000000,  !- Vertex 3 Z-coordinate {m}                     
    41.910000000000,  !- Vertex 4 X-coordinate {m}                   
    19.710000000000,  !- Vertex 4 Y-coordinate {m}                   
    3.600000000000;  !- Vertex 4 Z-coordinate {m}                     

  BuildingSurface:Detailed,
    17,                  !- Name
    Wall,  !- Surface Type
    EXT_WALL,  !- Construction Name
    Allgemein,  !- Zone Name
    Outdoors,  !- Outside Boundary Condition
    ,  !- Outside Boundary Condition Object
    SunExposed,  !- Sun Exposure
    WindExposed,  !- Wind Exposure
    ,  !- TRNSYS 17 - additional surface data
    4,  !- Number of Vertices
    33.960000000000,  !- Vertex 1 X-coordinate {m}                   
    19.710000000000,  !- Vertex 1 Y-coordinate {m}                   
    3.600000000000,  !- Vertex 1 Z-coordinate {m}                     
    33.960000000000,  !- Vertex 2 X-coordinate {m}                   
    19.710000000000,  !- Vertex 2 Y-coordinate {m}                   
    0.000000000000,  !- Vertex 2 Z-coordinate {m}                     
    33.960000000000,  !- Vertex 3 X-coordinate {m}                   
    3.060000000000,  !- Vertex 3 Y-coordinate {m}                   
    0.000000000000,  !- Vertex 3 Z-coordinate {m}                     
    33.960000000000,  !- Vertex 4 X-coordinate {m}                   
    3.060000000000,  !- Vertex 4 Y-coordinate {m}                   
    3.600000000000;  !- Vertex 4 Z-coordinate {m}                     

  BuildingSurface:Detailed,
    18,                  !- Name
    Wall,  !- Surface Type
    EXT_WALL,  !- Construction Name
    Allgemein,  !- Zone Name
    Outdoors,  !- Outside Boundary Condition
    ,  !- Outside Boundary Condition Object
    SunExposed,  !- Sun Exposure
    WindExposed,  !- Wind Exposure
    ,  !- TRNSYS 17 - additional surface data
    4,  !- Number of Vertices
    35.620000000000,  !- Vertex 1 X-coordinate {m}                   
    19.710000000000,  !- Vertex 1 Y-coordinate {m}                   
    3.600000000000,  !- Vertex 1 Z-coordinate {m}                     
    35.620000000000,  !- Vertex 2 X-coordinate {m}                   
    19.710000000000,  !- Vertex 2 Y-coordinate {m}                   
    0.000000000000,  !- Vertex 2 Z-coordinate {m}                     
    33.960000000000,  !- Vertex 3 X-coordinate {m}                   
    19.710000000000,  !- Vertex 3 Y-coordinate {m}                   
    0.000000000000,  !- Vertex 3 Z-coordinate {m}                     
    33.960000000000,  !- Vertex 4 X-coordinate {m}                   
    19.710000000000,  !- Vertex 4 Y-coordinate {m}                   
    3.600000000000;  !- Vertex 4 Z-coordinate {m}                     

  BuildingSurface:Detailed,
    19,                  !- Name
    Wall,  !- Surface Type
    EXT_WALL,  !- Construction Name
    Allgemein,  !- Zone Name
    Outdoors,  !- Outside Boundary Condition
    ,  !- Outside Boundary Condition Object
    SunExposed,  !- Sun Exposure
    WindExposed,  !- Wind Exposure
    ,  !- TRNSYS 17 - additional surface data
    4,  !- Number of Vertices
    41.910000000000,  !- Vertex 1 X-coordinate {m}                   
    19.710000000000,  !- Vertex 1 Y-coordinate {m}                   
    3.600000000000,  !- Vertex 1 Z-coordinate {m}                     
    41.910000000000,  !- Vertex 2 X-coordinate {m}                   
    19.710000000000,  !- Vertex 2 Y-coordinate {m}                   
    0.000000000000,  !- Vertex 2 Z-coordinate {m}                     
    45.820000000000,  !- Vertex 3 X-coordinate {m}                   
    19.710000000000,  !- Vertex 3 Y-coordinate {m}                   
    0.000000000000,  !- Vertex 3 Z-coordinate {m}                     
    45.820000000000,  !- Vertex 4 X-coordinate {m}                   
    19.710000000000,  !- Vertex 4 Y-coordinate {m}                   
    3.600000000000;  !- Vertex 4 Z-coordinate {m}                     

  BuildingSurface:Detailed,
    20,                  !- Name
    Wall,  !- Surface Type
    EXT_WALL,  !- Construction Name
    Allgemein,  !- Zone Name
    Outdoors,  !- Outside Boundary Condition
    ,  !- Outside Boundary Condition Object
    SunExposed,  !- Sun Exposure
    WindExposed,  !- Wind Exposure
    ,  !- TRNSYS 17 - additional surface data
    4,  !- Number of Vertices
    45.820000000000,  !- Vertex 1 X-coordinate {m}                   
    42.420000000000,  !- Vertex 1 Y-coordinate {m}                   
    3.600000000000,  !- Vertex 1 Z-coordinate {m}                     
    45.820000000000,  !- Vertex 2 X-coordinate {m}                   
    42.420000000000,  !- Vertex 2 Y-coordinate {m}                   
    0.000000000000,  !- Vertex 2 Z-coordinate {m}                     
    35.620000000000,  !- Vertex 3 X-coordinate {m}                   
    42.420000000000,  !- Vertex 3 Y-coordinate {m}                   
    0.000000000000,  !- Vertex 3 Z-coordinate {m}                     
    35.620000000000,  !- Vertex 4 X-coordinate {m}                   
    42.420000000000,  !- Vertex 4 Y-coordinate {m}                   
    3.600000000000;  !- Vertex 4 Z-coordinate {m}                     

  BuildingSurface:Detailed,
    21,                  !- Name
    Wall,  !- Surface Type
    EXT_WALL,  !- Construction Name
    Allgemein,  !- Zone Name
    Outdoors,  !- Outside Boundary Condition
    ,  !- Outside Boundary Condition Object
    SunExposed,  !- Sun Exposure
    WindExposed,  !- Wind Exposure
    ,  !- TRNSYS 17 - additional surface data
    4,  !- Number of Vertices
    45.820000000000,  !- Vertex 1 X-coordinate {m}                   
    19.710000000000,  !- Vertex 1 Y-coordinate {m}                   
    3.600000000000,  !- Vertex 1 Z-coordinate {m}                     
    45.820000000000,  !- Vertex 2 X-coordinate {m}                   
    19.710000000000,  !- Vertex 2 Y-coordinate {m}                   
    0.000000000000,  !- Vertex 2 Z-coordinate {m}                     
    45.820000000000,  !- Vertex 3 X-coordinate {m}                   
    42.420000000000,  !- Vertex 3 Y-coordinate {m}                   
    0.000000000000,  !- Vertex 3 Z-coordinate {m}                     
    45.820000000000,  !- Vertex 4 X-coordinate {m}                   
    42.420000000000,  !- Vertex 4 Y-coordinate {m}                   
    3.600000000000;  !- Vertex 4 Z-coordinate {m}                     

  BuildingSurface:Detailed,
    22,                  !- Name
    Floor,  !- Surface Type